OPT_V10/Two_days_MYC3/powerflow_results_t18.txt
Pandapower Network Debug Info
==================================================

BUS:
       vm_pu  va_degree      p_mw    q_mvar
0   0.993447   0.141624  0.000868  0.000948
1   0.989003   0.254377  0.001386  0.002250
2   0.985085   0.366041  0.001634  0.003373
3   0.990295   0.207346  0.002087  0.003318
4   0.999888   0.000701  0.009991  0.011614
5   0.999875   0.000694  0.009707  0.008428
6   0.999865   0.000660  0.013355  0.009185
7   0.999931   0.000548  0.000000  0.000000
8   0.999931   0.000554  0.000000  0.000000
9   1.000000   0.000000 -0.039168 -0.044206
10  1.000000   0.000006  0.000000  0.000000
--------------------------------------------------

LINE:
   p_from_mw  q_from_mvar   p_to_mw  q_to_mvar         pl_mw       ql_mvar  i_from_ka   i_to_ka      i_ka  vm_from_pu  va_from_degree  vm_to_pu  va_to_degree  loading_percent
0   0.039158     0.040206 -0.039155  -0.040204  3.081002e-06  2.402308e-06   0.002160  0.002160  0.002160    1.000000        0.000006  0.999931      0.000548         0.939220
1   0.033056     0.029228 -0.033055  -0.029226  1.505752e-06  1.174060e-06   0.001698  0.001698  0.001698    0.999931        0.000548  0.999888      0.000701         0.738462
2   0.006089     0.009977 -0.006025  -0.009927  6.390086e-05  4.982455e-05   0.016871  0.016871  0.016871    0.999931        0.000554  0.993447      0.141624         7.335195
3  -0.023063    -0.017612  0.023063   0.017613  2.912889e-07  2.271227e-07   0.001117  0.001117  0.001117    0.999875        0.000694  0.999888      0.000701         0.485686
4  -0.013355    -0.009185  0.013355   0.009185  1.285228e-07  1.002113e-07   0.000624  0.000624  0.000624    0.999865        0.000660  0.999875      0.000694         0.271285
5  -0.003034    -0.005634  0.003059   0.005653  2.476507e-05  1.930973e-05   0.009338  0.009338  0.009338    0.989003        0.254377  0.993447      0.141624         4.060206
6  -0.002087    -0.003318  0.002098   0.003326  1.046086e-05  8.156503e-06   0.005713  0.005713  0.005713    0.990295        0.207346  0.993447      0.141624         2.483988
7  -0.001634    -0.003373  0.001648   0.003384  1.309838e-05  1.021302e-05   0.005492  0.005492  0.005492    0.985085        0.366041  0.989003      0.254377         2.387995
--------------------------------------------------

TRAFO:
    p_hv_mw  q_hv_mvar   p_lv_mw  q_lv_mvar    pl_mw  ql_mvar   i_hv_ka   i_lv_ka  vm_hv_pu  va_hv_degree  vm_lv_pu  va_lv_degree  loading_percent
0  0.006099   0.010976 -0.006089  -0.009977  0.00001    0.001  0.000483  0.016871  0.999931      0.000548  0.999931      0.000554         0.125577
1  0.039168   0.044206 -0.039158  -0.040206  0.00001    0.004  0.000487  0.002160  1.000000      0.000000  1.000000      0.000006         0.147655
--------------------------------------------------
